LAMMPS (29 Sep 2021 - Update 2)
# LAMMPS input script for Argon with Lennard-Jones potential
units       metal
atom_style  atomic

# Create a box and atoms
lattice         fcc 5.25121198451
Lattice spacing in x,y,z = 5.2512120 5.2512120 5.2512120
region          box block 0 1 0 1 0 1
create_box      1 box
Created orthogonal box = (0.0000000 0.0000000 0.0000000) to (5.2512120 5.2512120 5.2512120)
create_atoms    1 box
Created 4 atoms

mass 1 39.9480

write_data      Ar_FCC_init.lammps
System init for write_data ...

# Define the Lennard-Jones potential
pair_style      lj/cut 20
pair_coeff      1 1 0.010325947230266126 3.405 20

# Define thermodynamic output
thermo          1000
thermo_style    custom step temp pe etotal press vol

fix 1 all box/relax iso 0.0 vmax 0.001
min_style cg
minimize 1.0e-4 1.0e-6 100 1000
  update every 1 steps, delay 0 steps, check yes
Step Temp PotEng TotEng Press Volume
0            0   -0.3538425   -0.3538425    10.983401    144.80336
Loop time of 0.000407915 on 1 procs for 1 steps with 4 atoms

Minimization stats:
  Stopping criterion = energy tolerance
  Energy initial, next-to-last, final =
  Force two-norm initial, final = 0.0029780117 6.2287054e-05
  Force max component initial, final = 0.0029780117 6.2287054e-05
  Final line search alpha, max atom move = 0.33579451 2.0915651e-05
  Iterations, force evaluations = 1 2

write_data      Ar_FCC_relaxed.lammps
System init for write_data ...

unfix 1
replicate 2 2 2
Replicating atoms ...
  orthogonal box = (-0.00031302801 -0.00031302801 -0.00031302801) to (10.503363 10.503363 10.503363)
  32 atoms
  replicate CPU = 0.000 seconds
timestep 0.001

#
variable Tmin equal 10
variable Tmax equal 100
variable Tstep equal 10
variable Tloop equal (100-10)/10+1

variable i loop 10
label loop

variable Tanneal equal 10+(1-1)*10
variable STEP equal step
variable T equal temp
variable PE equal pe
variable Eperatom equal pe/atoms
variable LAT equal (vol)^(1/3)/2

velocity all create 10 5534 dist gaussian
fix 1 all npt temp 10 10 1 iso 0 0 100.0

run 250000
Step Temp PotEng TotEng Press Volume
1           10   -2.8307414   -2.7906707    36.703915    1158.8413
Averages over the last 126 of 252 rows, steps 126000 to 250001:
Temp PotEng TotEng Press Volume
10.0893 -2.78897 -2.74854 -8.08221 1171.99
Loop time of 102.832 on 1 procs for 250000 steps with 32 atoms

unfix 1
unfix 2

next i
jump SELF loop

variable Tanneal equal 10+(2-1)*10
variable STEP equal step
variable T equal temp
variable PE equal pe
variable Eperatom equal pe/atoms
variable LAT equal (vol)^(1/3)/2

fix 1 all npt temp 20 20 1 iso 0 0 100.0

run 250000
Step Temp PotEng TotEng Press Volume
250001    9.2477032   -2.7909779   -2.7539218   -80.069137     1174.144
Averages over the last 126 of 252 rows, steps 376000 to 500001:
Temp PotEng TotEng Press Volume
20.0057 -2.74576 -2.6656 -28.9073 1186.83
Loop time of 93.2841 on 1 procs for 250000 steps with 32 atoms

unfix 1
unfix 2

next i
jump SELF loop

variable Tanneal equal 10+(3-1)*10
variable STEP equal step
variable T equal temp
variable PE equal pe
variable Eperatom equal pe/atoms
variable LAT equal (vol)^(1/3)/2

fix 1 all npt temp 30 30 1 iso 0 0 100.0

run 250000
Step Temp PotEng TotEng Press Volume
500001    15.804989    -2.745034   -2.6817024   -278.70465    1196.1917
Averages over the last 126 of 252 rows, steps 626000 to 750001:
Temp PotEng TotEng Press Volume
30.3976 -2.69307 -2.57127 6.92041 1202.42
Loop time of 93.9595 on 1 procs for 250000 steps with 32 atoms

unfix 1
unfix 2

next i
jump SELF loop

variable Tanneal equal 10+(4-1)*10
variable STEP equal step
variable T equal temp
variable PE equal pe
variable Eperatom equal pe/atoms
variable LAT equal (vol)^(1/3)/2

fix 1 all npt temp 40 40 1 iso 0 0 100.0

run 250000
Step Temp PotEng TotEng Press Volume
750001    29.324672   -2.7030215   -2.5855156     423.8281    1181.7361
Averages over the last 126 of 252 rows, steps 876000 to 1000001:
Temp PotEng TotEng Press Volume
40.4635 -2.65299 -2.49085 -12.6173 1216.52
Loop time of 95.2551 on 1 procs for 250000 steps with 32 atoms

unfix 1
unfix 2

next i
jump SELF loop

variable Tanneal equal 10+(5-1)*10
variable STEP equal step
variable T equal temp
variable PE equal pe
variable Eperatom equal pe/atoms
variable LAT equal (vol)^(1/3)/2

fix 1 all npt temp 50 50 1 iso 0 0 100.0

run 250000
Step Temp PotEng TotEng Press Volume
1000001    46.317321   -2.6584039   -2.4728074   -184.92283    1223.4996
Averages over the last 126 of 252 rows, steps 1126000 to 1250001:
Temp PotEng TotEng Press Volume
49.6303 -2.60305 -2.40418 -46.2996 1235.42
Loop time of 90.0395 on 1 procs for 250000 steps with 32 atoms

unfix 1
unfix 2

next i
jump SELF loop

variable Tanneal equal 10+(6-1)*10
variable STEP equal step
variable T equal temp
variable PE equal pe
variable Eperatom equal pe/atoms
variable LAT equal (vol)^(1/3)/2

fix 1 all npt temp 60 60 1 iso 0 0 100.0

run 250000
Step Temp PotEng TotEng Press Volume
1250001    46.708332   -2.6104354   -2.4232721    -754.2596    1266.0997
Averages over the last 126 of 252 rows, steps 1376000 to 1500001:
Temp PotEng TotEng Press Volume
61.2789 -2.54021 -2.29467 -37.3542 1258.54
Loop time of 90.4522 on 1 procs for 250000 steps with 32 atoms

unfix 1
unfix 2

next i
jump SELF loop

variable Tanneal equal 10+(7-1)*10
variable STEP equal step
variable T equal temp
variable PE equal pe
variable Eperatom equal pe/atoms
variable LAT equal (vol)^(1/3)/2

fix 1 all npt temp 70 70 1 iso 0 0 100.0

run 250000
Step Temp PotEng TotEng Press Volume
1500001    60.968918   -2.4546615   -2.2103551    311.44458      1269.39
Averages over the last 126 of 252 rows, steps 1626000 to 1750001:
Temp PotEng TotEng Press Volume
72.1995 -2.48141 -2.1921 -13.3322 1279.32
Loop time of 111.375 on 1 procs for 250000 steps with 32 atoms

unfix 1
unfix 2

next i
jump SELF loop

variable Tanneal equal 10+(8-1)*10
variable STEP equal step
variable T equal temp
variable PE equal pe
variable Eperatom equal pe/atoms
variable LAT equal (vol)^(1/3)/2

fix 1 all npt temp 80 80 1 iso 0 0 100.0

run 250000
Step Temp PotEng TotEng Press Volume
1750001    66.881362   -2.4113986   -2.1434006   -495.05449    1332.6357
Averages over the last 126 of 252 rows, steps 1876000 to 2000001:
Temp PotEng TotEng Press Volume
80.8857 -2.41391 -2.08979 -40.0082 1306.7
Loop time of 107.842 on 1 procs for 250000 steps with 32 atoms

unfix 1
unfix 2

next i
jump SELF loop

variable Tanneal equal 10+(9-1)*10
variable STEP equal step
variable T equal temp
variable PE equal pe
variable Eperatom equal pe/atoms
variable LAT equal (vol)^(1/3)/2

fix 1 all npt temp 90 90 1 iso 0 0 100.0

run 250000
Step Temp PotEng TotEng Press Volume
2000001    91.241864   -2.4497359   -2.0841239    244.87662    1279.4654
Averages over the last 126 of 252 rows, steps 2126000 to 2250001:
Temp PotEng TotEng Press Volume
89.4059 -2.36889 -2.01064 30.9426 1321.77
Loop time of 88.0269 on 1 procs for 250000 steps with 32 atoms

unfix 1
unfix 2

next i
jump SELF loop

variable Tanneal equal 10+(10-1)*10
variable STEP equal step
variable T equal temp
variable PE equal pe
variable Eperatom equal pe/atoms
variable LAT equal (vol)^(1/3)/2

fix 1 all npt temp 100 100 1 iso 0 0 100.0

run 250000
Step Temp PotEng TotEng Press Volume
2250001    93.532561   -2.4271373   -2.0523463   -34.358331    1301.7907
Averages over the last 126 of 252 rows, steps 2376000 to 2500001:
Temp PotEng TotEng Press Volume
98.6177 -1.8575 -1.46233 28.416 1596.26
Loop time of 70.6732 on 1 procs for 250000 steps with 32 atoms

unfix 1
unfix 2

next i
jump SELF loop
